/*---------------------------------------------------------------------------*\
| =========                 |                                                 |
| \\      /  F ield         | foam-extend: Open Source CFD                    |
|  \\    /   O peration     | Version:     4.0                                |
|   \\  /    A nd           | Web:         http://www.foam-extend.org         |
|    \\/     M anipulation  | For copyright notice see file Copyright         |
\*---------------------------------------------------------------------------*/
Build    : 4.0-c606a7c3f115
Exec     : blockMesh
Date     : Dec 12 2023
Time     : 19:12:11
Host     : inam-Z9PE-D16-Series
PID      : 11678
CtrlDict : "/home/inam/examples_SomaFOAM/plasma250Cells_1cmApartElectrodes/case4_1TorrArgonPlasma_CoNoPoint7_250V_DC_deltaTValuesDifferenT/system/controlDict"
Case     : /home/inam/examples_SomaFOAM/plasma250Cells_1cmApartElectrodes/case4_1TorrArgonPlasma_CoNoPoint7_250V_DC_deltaTValuesDifferenT
nProcs   : 1
SigFpe   : Enabling floating point exception trapping (FOAM_SIGFPE).

// * * * * * * * * * * * * * * * * * * * * * * * * * * * * * * * * * * * * * //
Create time


Creating block mesh from
    "/home/inam/examples_SomaFOAM/plasma250Cells_1cmApartElectrodes/case4_1TorrArgonPlasma_CoNoPoint7_250V_DC_deltaTValuesDifferenT/constant/polyMesh/blockMeshDict"

Creating curved edges
Creating topology blocks
Creating topology patches

Creating block mesh topology

Check topology

	Basic statistics
		Number of internal faces : 0
		Number of boundary faces : 6
		Number of defined boundary faces : 6
		Number of undefined boundary faces : 0
	Checking patch -> block consistency

Creating block offsets
Creating merge list .

Creating polyMesh from blockMesh
Creating patches
Creating cells
Creating points with scale 0.01
    Block 0 cell size :
        i : 4e-05 .. 4e-05
        j : 0.01 .. 0.01
        k : 0.01 .. 0.01


Writing polyMesh
----------------
Mesh Information
----------------
  boundingBox: (0 0 0) (0.01 0.01 0.01)
  nPoints: 1004
  nCells: 250
  nFaces: 1251
  nInternalFaces: 249
----------------
Patches
----------------
  patch 0 (start: 249 size: 1) name: electrode
  patch 1 (start: 250 size: 1) name: ground
  patch 2 (start: 251 size: 1000) name: otherfaces

End

